test/test_files/validation_tests/case2746wp_resqlim.m
function mpc = case2746wp_resqlim
%CASE2746WP_RESQLIM

%% MATPOWER Case Format : Version 2
mpc.version = '2';

%%-----  Power Flow Data  -----%%
%% system MVA base
mpc.baseMVA = 100;

%% bus data
%    bus_i    type    Pd    Qd    Gs    Bs    area    Vm    Va    baseKV    zone    Vmax    Vmin    lam_P    lam_Q    mu_Vmax    mu_Vmin
mpc.bus = [
    1    1    0    0    0    0    1    1.08039471    -0.645434621    220    1    1.11    0.95    98.3658    0.1938    0.0000    0.0000;
    2    1    0    0    0    0    1    1.08109926    1.26029015    220    1    1.11    0.95    97.9988    0.1556    0.0000    0.0000;
    3    1    0    0    0    0    1    1.04861198    -27.5528568    220    1    1.11    0.95    113.5931    0.8243    0.0000    0.0000;
    4    1    0    0    0    0    1    1.05895454    -6.30692763    220    1    1.11    0.95    101.3462    0.7470    0.0000    0.0000;
    5    1    0    0    0    0    1    1.05900384    -6.3094545    220    1    1.11    0.95    101.3481    0.7457    0.0000    0.0000;
    6    1    0    0    0    0    1    1.03581162    -18.4562963    220    1    1.11    0.95    106.5828    1.2223    0.0000    0.0000;
    7    1    0    0    0    0    1    1.03598816    -18.4479356    220    1    1.11    0.95    106.5743    1.2187    0.0000    0.0000;
    8    1    0    0    0    0    1    1.00972457    -13.975267    400    1    1.05    0.95    105.2553    0.6873    0.0000    0.0000;
    9    1    0    0    0    0    1    1.00975257    -13.9706254    400    1    1.05    0.95    105.2527    0.6857    0.0000    0.0000;
    10    1    0    0    0    0    1    1.01401611    -18.4364121    220    1    1.11    0.95    107.7378    1.8165    0.0000    0.0000;
    11    1    0    0    0    0    1    1.01390662    -18.4211445    220    1    1.11    0.95    107.7369    1.8191    0.0000    0.0000;
    12    1    0    0    0    0    1    1.01395498    -18.4113807    220    1    1.11    0.95    107.7347    1.8184    0.0000    0.0000;
    13    1    0    0    0    0    1    1.00753541    -12.1283152    400    1    1.05    0.95    104.4075    1.0389    0.0000    0.0000;
    14    1    0    0    0    0    1    1.00759122    -12.1178343    400    1    1.05    0.95    104.4018    1.0365    0.0000    0.0000;
    15    1    0    0    0    0    1    1.0079496    -17.2025088    400    1    1.05    0.95    106.1196    0.0526    0.0000    0.0000;
    16    1    0    0    0    0    1    1.0079496    -17.2025088    400    1    1.05    0.95    106.1196    0.0526    0.0000    0.0000;
    17    1    11    40    0    0    1    1.0908636    -22.3709125    220    1    1.11    0.95    109.5314    0.0007    0.0000    0.0000;
    18    2    14    40    0    0    1    1.09091    -22.3693278    220    1    1.11    0.95    109.5301    0.0000    0.0000    0.0203;
    19    1    0    0    0    0    1    1.06516038    -5.11166478    220    1    1.11    0.95    100.6721    0.6066    0.0000    0.0000;
    20    1    0    0    0    0    1    1.06519907    -5.11048901    220    1    1.11    0.95    100.6736    0.6058    0.0000    0.0000;
    21    1    0    0    0    0    1    1.03502703    -20.0147049    220    1    1.11    0.95    108.3430    1.3062    0.0000    0.0000;
    22    1    0    0    0    0    1    1.03495274    -20.0166145    220    1    1.11    0.95    108.3441    1.3075    0.0000    0.0000;
    23    1    0    0    0    0    1    1.01700838    -18.2918526    220    1    1.11    0.95    107.6600    1.7291    0.0000    0.0000;
    24    1    0    0    0    0    1    1.06875068    -2.90459646    220    1    1.11    0.95    99.8073    0.5296    0.0000    0.0000;
    25    1    0    0    0    0    1    1.00220695    -14.4736971    400    1    1.05    0.95    105.4805    0.4745    0.0000    0.0000;
    26    2    46.738    72.054    0    0    1    1.09091    -0.271456899    220    1    1.11    0.95    98.1840    0.0000    1871.2524    0.0000;
    27    2    85.493    122.06    0    0    1    1.09091    1.51822236    220    1    1.11    0.95    97.8808    0.0000    2497.9903    0.0000;
    28    3    60    110    0    0    1    1.0325    0    400    1    1.05    0.95    98.8168    -0.1638    0.0000    0.0000;
    29    2    60.097    90    0    0    1    1.0325    0.00596430093    400    1    1.05    0.95    98.8125    -0.1626    0.0000    0.0000;
    30    1    0    0    0    0    1    1.02226115    -19.2760649    220    1    1.11    0.95    108.2832    1.5095    0.0000    0.0000;
    31    1    0    0    0    0    1    1.03141508    -1.48566407    400    1    1.05    0.95    98.9272    -0.4853    0.0000    0.0000;
    32    1    0    0    0    0    1    1.01135843    -18.7956864    220    1    1.11    0.95    107.9744    1.8681    0.0000    0.0000;
    33    1    0    0    0    0    1    1.06875733    -2.90347205    220    1    1.11    0.95    99.8069    0.5295    0.0000    0.0000;
    34    1    0    0    0    0    1    1.06512322    -9.89177928    220    1    1.11    0.95    103.0266    0.5256    0.0000    0.0000;
    35    1    0    0    0    0    1    1.07462577    -13.6727612    220    2    1.11    0.95    104.6817    0.0239    0.0000    0.0000;
    36    1    0    0    0    0    1    1.07853736    -13.3264719    220    2    1.11    0.95    104.6851    -0.0233    0.0000    0.0000;
    37    1    0    0    0    0    1    1.0848321    -11.5557478    220    2    1.11    0.95    103.5611    -0.0732    0.0000    0.0000;
    38    1    0    0    0    0    1    1.0848184    -11.5601595    220    2    1.11    0.95    103.5634    -0.0730    0.0000    0.0000;
    39    1    0    0    0    0    1    1.06281268    -16.6269367    220    2    1.11    0.95    106.6792    -0.1631    0.0000    0.0000;
    40    1    0    0    0    0    1    1.08814908    -9.74970792    220    2    1.11    0.95    102.8022    -0.2150    0.0000    0.0000;
    41    1    0    0    0    0    1    1.08811041    -9.74790139    220    2    1.11    0.95    102.8019    -0.2146    0.0000    0.0000;
    42    1    0    0    0    0    1    1.02975948    -10.1119877    400    2    1.05    0.95    102.8310    -0.3182    0.0000    0.0000;
    43    2    11.436    0    0    0    1    1.09091    -10.1881062    220    2    1.11    0.95    102.8898    0.0019    0.0000    0.0000;
    44    2    24    0    0    0    1    1.09096    -10.1598126    220    2    1.11    0.95    102.8801    0.0000    1267.4360    0.0000;
    45    2    20    0    0    0    1    1.0325    -10.9588128    400    2    1.05    0.95    103.5574    0.0000    0.0000    0.0000;
    46    1    0    0    0    0    1    1.03252401    -10.9605401    400    2    1.05    0.95    103.5562    -0.0017    0.0000    0.0000;
    47    1    0    0    0    0    1    1.08417813    -10.3591786    220    2    1.11    0.95    103.2216    -0.1332    0.0000    0.0000;
    48    1    0    0    0    0    1    1.02053691    -16.0241943    400    2    1.05    0.95    104.6752    -0.3477    0.0000    0.0000;
    49    1    0    0    0    0    1    1.02050359    -16.0334444    400    2    1.05    0.95    104.6797    -0.3469    0.0000    0.0000;
    50    1    0    0    0    0    1    1.03421206    -12.1461908    400    2    1.05    0.95    103.9640    -0.4380    2649.8675    0.0000;
    51    1    0    0    0    0    1    1.07015644    -15.4336302    220    2    1.11    0.95    106.0233    -0.1063    0.0000    0.0000;
    52    1    0    0    0    0    1    1.07014538    -15.4333032    220    2    1.11    0.95    106.0243    -0.1064    0.0000    0.0000;
    53    1    0    0    0    0    1    1.02992464    -11.6058622    400    2    1.05    0.95    103.5431    -0.2198    0.0000    0.0000;
    54    1    0    0    0    0    1    1.02993189    -11.6042423    400    2    1.05    0.95    103.5419    -0.2206    0.0000    0.0000;
    55    2    12    0    0    0    1    1.09121    -9.82665297    220    2    1.11    0.95    102.6793    -0.1306    0.0000    0.0000;
    56    2    11.436    0    0    0    1    1.09115    -9.82374301    220    2    1.11    0.95    102.6756    -0.1282    0.0000    0.0000;
    57    2    12    0    0    0    1    1.03336    -10.5650044    400    2    1.05    0.95    102.9624    -0.4555    0.0000    0.0000;
    58    2    11.436    0    0    0    1    1.03337    -10.570001    400    2    1.05    0.95    102.9649    -0.4554    0.0000    0.0000;
    59    1    167.518    60    0    0    1    1.08350267    -11.732555    220    2    1.11    0.95    103.6382    0.0447    0.0000    0.0000;
    60    1    0    0    0    0    1    1.08351991    -11.7326915    220    2    1.11    0.95    103.6376    0.0440    0.0000    0.0000;
    61    1    0    0    0    0    1    1.08523184    -10.5320225    220    2    1.11    0.95    103.1603    -0.1600    0.0000    0.0000;
    62    1    0    0    0    0    1    1.08437622    -11.4573206    220    2    1.11    0.95    103.6562    0.0311    0.0000    0.0000;
    63    1    0    0    0    0    1    1.08437048    -11.4606501    220    2    1.11    0.95    103.6568    0.0317    0.0000    0.0000;
    64    1    0    0    0    0    1    1.03326081    -12.1831164    400    2    1.05    0.95    103.3469    -0.6450    0.0000    0.0000;
    65    1    0    0    0    0    1    1.03323846    -12.1954733    400    2    1.05    0.95    103.3508    -0.6455    0.0000    0.0000;
    66    1    0    0    0    0    1    1.07723017    -13.2010994    220    2    1.11    0.95    104.3236    -0.0107    0.0000    0.0000;
    67    1    0    0    0    0    1    1.07906583    -12.9425843    220    2    1.11    0.95    104.1800    -0.0365    0.0000    0.0000;
    68    1    0    0    0    0    1    1.07105434    -14.915863    220    2    1.11    0.95    105.8181    -0.0576    0.0000    0.0000;
    69    1    0    0    0    0    1    1.0839959    -4.64524378    220    3    1.11    0.95    100.1491    -0.1679    0.0000    0.0000;
    70    1    7.123    0    0    0    1    1.08243213    -10.0890499    220    3    1.11    0.95    103.0168    0.0335    0.0000    0.0000;
    71    1    8.31    0.933    0    0    1    1.08240683    -10.0918817    220    3    1.11    0.95    103.0192    0.0343    0.0000    0.0000;
    72    1    0    0    0    0    1    1.08491758    -4.48057146    220    3    1.11    0.95    99.8543    0.0998    0.0000    0.0000;
    73    1    0    0    0    0    1    1.08499735    -4.47135552    220    3    1.11    0.95    99.8509    0.0987    0.0000    0.0000;
    74    1    0    0    0    0    1    1.0829127    -4.93585718    220    3    1.11    0.95    100.0408    0.1135    0.0000    0.0000;
    75    1    0    0    0    0    1    1.0828688    -4.94006461    220    3    1.11    0.95    100.0426    0.1140    0.0000    0.0000;
    76    1    0    0    0    0    1    1.08890916    -3.53272887    220    3    1.11    0.95    99.5287    0.0371    0.0000    0.0000;
    77    1    0    0    0    0    1    1.08885879    -3.54092915    220    3    1.11    0.95    99.5330    0.0382    0.0000    0.0000;
    78    2    27    70    0    0    1    1.09091    -3.85980102    220    3    1.11    0.95    99.5068    0.0000    748.3478    0.0000;
    79    1    9    21    0    0    1    1.09034298    -4.04227797    220    3    1.11    0.95    99.6306    0.0011    0.0000    0.0000;
    80    1    10.328    2.61    0    0    1    1.07754058    -5.30942359    220    3    1.11    0.95    100.4225    0.2765    0.0000    0.0000;
    81    1    0    0    0    0    1    1.07755353    -5.30805201    220    3    1.11    0.95    100.4220    0.2763    0.0000    0.0000;
    82    2    35    108    0    0    1    1.02993    -3.78373396    400    3    1.05    0.95    99.2008    0.0000    0.0000    0.0000;
    83    1    0    0    0    0    1    1.07823685    -6.71462116    220    3    1.11    0.95    100.5192    0.3124    0.0000    0.0000;
    84    1    0    0    0    0    1    1.08667001    -4.05333437    220    3    1.11    0.95    99.4386    0.0554    0.0000    0.0000;
    85    1    0    0    0    0    1    1.0866611    -4.05537168    220    3    1.11    0.95    99.4405    0.0558    0.0000    0.0000;
    86    1    37.893    12.351    0    0    1    1.0851384    -4.51380005    220    3    1.11    0.95    99.9812    -0.1367    0.0000    0.0000;
    87    1    0    0    0    0    1    1.08511184    -4.51998173    220    3    1.11    0.95    99.9832    -0.1370    0.0000    0.0000;
    88    1    0    0    0    0    1    1.08711915    -4.0296833    220    3    1.11    0.95    99.3740    0.0877    0.0000    0.0000;
    89    1    0    0    0    0    1    1.08709434    -4.03106366    220    3    1.11    0.95    99.3753    0.0883    0.0000    0.0000;
    90    1    0    0    0    0    1    1.08813647    -4.05401487    220    3    1.11    0.95    99.7690    -0.1565    0.0000    0.0000;
    91    1    0    0    0    0    1    1.08811171    -4.05976642    220    3    1.11    0.95    99.7716    -0.1564    0.0000    0.0000;
    92    1    0    0    0    0    1    1.03121677    -2.36366266    400    3    1.05    0.95    99.4873    -0.2606    0.0000    0.0000;
    93    1    0    0    0    0    1    1.03122227    -2.36559704    400    3    1.05    0.95    99.4875    -0.2610    0.0000    0.0000;
    94    1    0    0    0    0    1    1.089404    -3.77523998    220    3    1.11    0.95    99.0458    0.0213    0.0000    0.0000;
    95    1    0    0    0    0    1    1.08940502    -3.77415004    220    3    1.11    0.95    99.0452    0.0211    0.0000    0.0000;
    96    1    0    0    0    0    1    1.08207999    -5.75667652    220    3    1.11    0.95    100.2120    0.1872    0.0000    0.0000;
    97    1    0    0    0    0    1    1.08207078    -5.76146903    220    3    1.11    0.95    100.2128    0.1879    0.0000    0.0000;
    98    1    16.027    7.274    0    0    1    1.08796705    -4.84514135    220    3    1.11    0.95    100.0477    -0.0303    0.0000    0.0000;
    99    1    7.764    0.258    0    0    1    1.0879652    -4.8504076    220    3    1.11    0.95    100.0498    -0.0308    0.0000    0.0000;
    100    1    0    0    0    0    1    1.08249004    -10.0722626    220    3    1.11    0.95    103.0080    0.0336    0.0000    0.0000;
    101    1    0    0    0    0    1    1.08246472    -10.0719032    220    3    1.11    0.95    103.0072    0.0341    0.0000    0.0000;
    102    1    0    0    0    0    1    1.08211784    -4.62857153    220    3    1.11    0.95    100.1615    0.1646    0.0000    0.0000;
    103    1    0    0    0    0    1    1.08203358    -4.63895813    220    3    1.11    0.95    100.1660    0.1662    0.0000    0.0000;
    104    2    14    40    0    0    1    1.09091    -3.48254241    220    3    1.11    0.95    99.0705    0.0000    851.4354    0.0000;
    105    2    14    40    0    0    1    1.09091    -3.48293597    220    3    1.11    0.95    99.0679    0.0010    0.0000    0.0000;
    106    2    7    18    0    0    1    1.09091    -3.72055708    220    3    1.11    0.95    99.1312    -0.0000    0.0000    0.0000;
    107    2    8    15    0    0    1    1.09091    -3.72046743    220    3    1.11    0.95    99.1331    0.0009    0.0000    0.0000;
    108    1    1.044    0    0    0    1    1.08721245    -5.35033992    220    3    1.11    0.95    100.3152    -0.0853    0.0000    0.0000;
    109    1    1.259    0    0    0    1    1.08724309    -5.35708394    220    3    1.11    0.95    100.3166    -0.0846    0.0000    0.0000;
    110    1    0    0    0    0    1    1.08447151    -6.61255948    220    3    1.11    0.95    101.1866    0.0199    0.0000    0.0000;
    111    1    0    0    0    0    1    1.0747975    -5.35933377    220    3    1.11    0.95    100.4766    0.3798    0.0000    0.0000;
    112    1    0    0    0    0    1    1.07481766    -5.35906561    220    3    1.11    0.95    100.4764    0.3794    0.0000    0.0000;
    113    1    0    0    0    0    1    1.07835455    -5.21168231    220    3    1.11    0.95    100.3684    0.2578    0.0000    0.0000;
    114    1    0    0    0    0    1    1.07843742    -5.20138683    220    3    1.11    0.95    100.3643    0.2564    0.0000    0.0000;
    115    1    0    0    0    0    1    1.03118978    -6.18276897    400    3    1.05    0.95    100.4302    -1.3328    0.0000    0.0000;
    116    2    0    0    0    0    1    1.09041371    -4.55176767    220    3    1.11    0.95    99.8878    0.0005    0.0000    0.0000;
    117    2    8    15    0    0    1    1.09046    -4.54478605    220    3    1.11    0.95    99.8858    0.0000    0.0000    0.0000;
    118    2    5.5    10    0    0    1    1.089    -5.91775688    220    3    1.11    0.95    100.8745    -0.0648    0.0000    0.0000;
    119    1    0    0    0    0    1    1.08894979    -5.93006373    220    3    1.11    0.95    100.8794    -0.0642    0.0000    0.0000;
    120    1    0    0    0    0    1    1.03520904    -10.7559852    400    3    1.05    0.95    102.8601    -0.8607    0.0000    0.0000;
    121    1    0    0    0    0    1    1.03525106    -10.7479251    400    3    1.05    0.95    102.8559    -0.8627    0.0000    0.0000;
    122    1    0    0    0    0    1    1.03714154    -6.38519723    400    3    1.05    0.95    100.5772    -2.3753    0.0000    0.0000;
    123    1    0    0    0    0    1    1.03714902    -6.37966902    400    3    1.05    0.95    100.5753    -2.3844    29819.5951    0.0000;
    124    1    0    0    0    0    1    1.08450898    -6.72248756    220    3    1.11    0.95    101.3365    -0.0037    0.0000    0.0000;
    125    2    18.343    21.865    0    0    1    1.09091    -4.11229266    220    3    1.11    0.95    99.5430    0.0000    0.0000    0.0000;
    126    2    28.469    34.292    0    0    1    1.09082    -4.11379166    220    3    1.11    0.95    99.5460    0.0025    0.0000    0.0000;
    127    2    28    66    0    0    1    1.02869    -5.31237088    400    3    1.05    0.95    100.0312    -0.6133    0.0000    0.0000;
    128    1    0    0    0    0    1    1.02870831    -5.31497735    400    3    1.05    0.95    100.0321    -0.6163    0.0000    0.0000;
    129    1    0    0    0    0    1    1.0844784    -4.64213753    220    3    1.11    0.95    100.0378    -0.1398    0.0000    0.0000;
    130    1    0    0    0    0    1    1.08451563    -4.63837104    220    3    1.11    0.95    100.0349    -0.1397    0.0000    0.0000;
    131    1    0    0    0    0    1    1.08656603    -4.31912007    220    3    1.11    0.95    99.8703    -0.1381    0.0000    0.0000;
    132    2    3    18    0    0    1    1.09091    -2.79055223    220    3    1.11    0.95    99.1843    0.0000    860.4661    0.0000;
    133    2    2    6    0    0    1    1.09091    -3.17748768    220    3    1.11    0.95    99.3612    0.0000    428.7704    0.0000;
    134    1    15.447    12.88    0    0    1    1.08766276    -11.2055558    220    4    1.11    0.95    103.4466    0.0000    532.4155    0.0000;
    135    2    5.255    -0.357    0    0    1    1.08751368    -11.2153796    220    4    1.11    0.95    103.4495    0.0024    0.0000    0.0000;
    136    1    0    0    0    0    1    1.05402154    -13.5269229    220    4    1.11    0.95    102.4302    0.8590    0.0000    0.0000;
    137    1    0    0    0    0    1    1.0624846    -11.6377838    220    4    1.11    0.95    101.2356    0.6887    0.0000    0.0000;
    138    1    0    0    0    0    1    0.993960715    -10.2797791    400    4    1.05    0.95    101.1353    0.6360    0.0000    0.0000;
    139    1    0    0    0    0    1    0.993979284    -10.2812027    400    4    1.05    0.95    101.1362    0.6358    0.0000    0.0000;
    140    1    0    0    0    0    1    1.07016953    -22.465574    220    4    1.11    0.95    110.4019    0.4199    0.0000    0.0000;
    141    1    0    0    0    0    1    1.07246758    -29.0609428    220    4    1.11    0.95    114.1140    0.4044    0.0000    0.0000;
    142    1    0    0    0    0    1    1.07246758    -29.0609428    220    4    1.11    0.95    114.1140    0.4044    0.0000    0.0000;
    143    1    0    0    0    0    1    1.07480092    -25.9155036    220    4    1.11    0.95    111.2129    0.8957    0.0000    0.0000;
    144    1    0    0    0    0    1    1.06480317    -14.0196301    220    4    1.11    0.95    101.8406    0.4787    0.0000    0.0000;
    145    1    0    0    0    0    1    1.06480317    -14.0196301    220    4    1.11    0.95    101.8406    0.4787    0.0000    0.0000;
    146    1    10.954    -0.465    0    0    1    1.0898617    -14.1609615    220    4    1.11    0.95    104.8461    0.0247    0.0000    0.0000;
    147    2    10.812    -0.465    0    0    1    1.08984072    -14.1720239    220    4    1.11    0.95    104.8485    0.0260    0.0000    0.0000;
    148    2    11.5    6.86    0    0    1    1.09091    -26.8108754    220    4    1.11    0.95    112.2754    0.0000    1722.1892    0.0000;
    149    1    1.634    3.038    0    0    1    1.09097683    -26.8059962    220    4    1.11    0.95    112.2713    0.0006    0.0000    0.0000;
    150    2    8.087    -0.38    0    0    1    1.03246    -23.2948171    400    4    1.05    0.95    111.2998    -0.2377    0.0000    0.0000;
    151    2    16.174    -0.76    0    0    1    1.0325    -23.2906275    400    4    1.05    0.95    111.2966    -0.2386    0.0000    0.0000;
    152    1    0    0    0    0    1    1.03345877    -22.6083671    220    4    1.11    0.95    111.0636    1.8396    0.0000    0.0000;
    153    1    0    0    0    0    1    1.05037692    -21.1523039    220    4    1.11    0.95    108.1496    1.8476    0.0000    0.0000;
    154    1    0    0    0    0    1    1.05046554    -21.1456767    220    4    1.11    0.95    108.1448    1.8458    0.0000    0.0000;
    155    2    30.555    -3.555    0    0    1    1.09091    -7.32399895    220    4    1.11    0.95    98.9764    0.0000    6606.4137    0.0000;
    156    2    14.679    -3.566    0    0    1    1.09091    -8.4702064    220    4    1.11    0.95    99.5878    0.0000    8240.7403    0.0000;
    157    1    0    0    0    0    1    1.09091    -7.32399895    220    4    1.11    0.95    98.9764    0.0000    0.0000    0.0000;
    158    1    0    0    0    0    1    1.00532826    -6.90220835    400    4    1.05    0.95    99.4370    0.1499    0.0000    0.0000;
    159    2    7.385    -1.783    0    0    1    1.00535    -6.89640553    400    4    1.05    0.95    99.4353    0.1487    0.0000    0.0000;
    160    1    0    0    0    0    1    1.07060636    -29.2780287    220    4    1.11    0.95    114.3792    0.4216    0.0000    0.0000;
    161    1    0    0    0    0    1    1.07060636    -29.2780287    220    4    1.11    0.95    114.3792    0.4216    0.0000    0.0000;
    162    1    0    0    0    0    1    0.992858912    -11.2774376    400    4    1.05    0.95    101.7681    0.8220    0.0000    0.0000;
    163    1    0    0    0    0    1    1.00110582    -9.6653245    400    4    1.05    0.95    101.0197    0.5666    0.0000    0.0000;
    164    1    0    0    0    0    1    1.00109425    -9.66762118    400    4    1.05    0.95    101.0201    0.5666    0.0000    0.0000;
    165    2    4.293    -8.964    0    0    1    1.09084    -14.2674348    220    4    1.11    0.95    104.8666    0.0000    2151.3956    0.0000;
    166    2    23.077    7.176    0    0    1    1.09091    -14.2871102    220    4    1.11    0.95    104.8772    0.0020    0.0000    0.0000;
    167    1    0    0    0    0    1    1.09084    -14.2674348    220    4    1.11    0.95    104.8666    0.0000    0.0000    0.0000;
    168    1    0    0    0    0    1    1.0651132    -27.5513243    220    4    1.11    0.95    113.8019    0.1600    0.0000    0.0000;
    169    1    0    0    0    0    1    1.07157345    -29.1772272    220    4    1.11    0.95    114.2024    0.4189    0.0000    0.0000;
    170    1    0    0    0    0    1    1.0645165    -23.4679399    220    4    1.11    0.95    111.1430    0.5568    0.0000    0.0000;
    171    1    0    0    0    0    1    1.06442311    -23.4610991    220    4    1.11    0.95    111.1408    0.5584    0.0000    0.0000;
    172    1    0    0    0    0    1    0.988850681    -24.5638797    400    4    1.05    0.95    111.4856    0.4789    0.0000    0.0000;
    173    1    0    0    0    0    1    0.988850681    -24.5638797    400    4    1.05    0.95    111.4856    0.4789    0.0000    0.0000;
    174    1    0    0    0    0    1    1.02335882    -18.6743175    220    4    1.11    0.95    107.7998    2.5845    0.0000    0.0000;
    175    1    0    0    0    0    1    1.02337416    -18.6671061    220    4    1.11    0.95    107.7990    2.5843    0.0000    0.0000;
    176    1    0    0    0    0    1    1.06234728    -24.0172665    220    4    1.11    0.95    111.4317    0.5802    0.0000    0.0000;
    177    1    0    0    0    0    1    1.05987372    -13.0057158    220    4    1.11    0.95    102.1816    0.7107    0.0000    0.0000;
    178    1    0    0    0    0    1    1.05991705    -12.9992221    220    4    1.11    0.95    102.1813    0.7101    0.0000    0.0000;
    179    1    0    0    0    0    1    1.06125801    -12.4489068    220    4    1.11    0.95    102.2825    0.6845    0.0000    0.0000;
    180    1    0    0    0    0    1    1.06125801    -12.4489068    220    4    1.11    0.95    102.2825    0.6845    0.0000    0.0000;
    181    1    0    0    0    0    1    1.01986744    -20.2752624    220    4    1.11    0.95    108.4654    2.6634    0.0000    0.0000;
    182    1    0    0    0    0    1    1.03994499    -22.7753662    220    5    1.11    0.95    109.5467    -0.0766    0.0000    0.0000;
    183    1    0    0    0    0    1    1.11212081    -24.5772316    220    5    1.11    0.95    110.9010    -1.5077    3341.3081    0.0000;
    184    1    0    0    0    0    1    1.03989943    -22.837576    400    5    1.05    0.95    110.5637    -0.5762    0.0000    0.0000;
    185    1    0    0    0    0    1    1.03991668    -22.8420079    400    5    1.05    0.95    110.5665    -0.5760    0.0000    0.0000;
    186    1    0    0    0    0    1    1.02166262    -22.308024    400    5    1.05    0.95    109.9911    0.0207    0.0000    0.0000;
    187    1    0    0    0    0    1    1.02169006    -22.3122356    400    5    1.05    0.95    109.9940    0.0207    0.0000    0.0000;
    188    1    0    0    0    0    1    1.02112865    -26.149498    220    5    1.11    0.95    112.0495    0.4732    0.0000    0.0000;
    189    1    0    0    0    0    1    1.02120929    -26.1510543    220    5    1.11    0.95    112.0501    0.4725    0.0000    0.0000;
    190    1    0    0    0    0    1    1.06375417    -23.6259413    220    5    1.11    0.95    109.8131    -0.4616    0.0000    0.0000;
    191    1    0    0    0    0    1    1.06364384    -23.6274856    220    5    1.11    0.95    109.8138    -0.4625    0.0000    0.0000;
    192    1    0    0    0    0    1    0.985443869    -20.8468412    400    5    1.05    0.95    108.9619    0.0646    0.0000    0.0000;
    193    1    0    0    0    0    1    1.04825763    -21.9388614    220    5    1.11    0.95    109.2100    0.0979    0.0000    0.0000;
    194    1    0    0    0    0    1    1.04832638    -21.9349296    220    5    1.11    0.95    109.2090    0.0981    0.0000    0.0000;
    195    1    0    0    0    0    1    1.00813197    -24.2817817    400    5    1.05    0.95    111.1787    0.1111    0.0000    0.0000;
    196    1    0    0    0    0    1    1.00807715    -24.2867338    400    5    1.05    0.95    111.1820    0.1117    0.0000    0.0000;
    197    1    0    0    0    0    1    1.05259286    -26.8089339    220    5    1.11    0.95    112.6796    0.3221    0.0000    0.0000;
    198    1    0    0    0    0    1    1.05263102    -26.8020331    220    5    1.11    0.95    112.6765    0.3220    0.0000    0.0000;
    199    1    0    0    0    0    1    1.04425345    -20.9333234    400    5    1.05    0.95    109.5722    -0.3075    0.0000    0.0000;
    200    1    0    0    0    0    1    1.04426825    -20.927887    400    5    1.05    0.95    109.5718    -0.3087    0.0000    0.0000;
...
];

%% generator data
%    bus    Pg    Qg    Qmax    Qmin    Vg    mBase    status    Pmax    Pmin    Pc1    Pc2    Qc1min    Qc1max    Qc2min    Qc2max    ramp_agc    ramp_10    ramp_30    ramp_q    apf    mu_Pmax    mu_Pmin    mu_Qmax    mu_Qmin
mpc.gen = [
    17    140    120    120    -10    1.09088    233.2    1    200    140    0    0    0    0    0    0    0    0    0    0    0    0.0000    3.2486    0.0007    0.0000;
    18    140    84.3966468    120    -10    1.09091    233.2    1    200    140    0    0    0    0    0    0    0    0    0    0    0    0.0000    3.2499    0.0000    0.0000;
    26    370    106.390128    220    -10    1.09091    430.5    1    370    290    0    0    0    0    0    0    0    0    0    0    0    22.0840    0.0000    0.0000    0.0000;
    26    360    106.390128    220    -10    1.09091    421.9    1    360    290    0    0    0    0    0    0    0    0    0    0    0    22.0840    0.0000    0.0000    0.0000;
    27    360    91.843589    220    -10    1.09091    421.9    1    360    290    0    0    0    0    0    0    0    0    0    0    0    21.7808    0.0000    0.0000    0.0000;
    27    370    91.843589    220    -10    1.09091    430.5    1    370    290    0    0    0    0    0    0    0    0    0    0    0    21.7808    0.0000    0.0000    0.0000;
    27    370    91.843589    220    -10    1.09091    430.5    1    370    290    0    0    0    0    0    0    0    0    0    0    0    21.7808    0.0000    0.0000    0.0000;
    28    392.551341    20.2378426    220    -10    1.0325    430.5    1    370    290    0    0    0    0    0    0    0    0    0    0    0    22.7168    0.0000    0.0000    0.1638;
    28    370    20.2378426    220    -10    1.0325    430.5    1    370    290    0    0    0    0    0    0    0    0    0    0    0    22.7168    0.0000    0.0000    0.1638;
    28    370    20.2378426    220    -10    1.0325    430.5    1    370    290    0    0    0    0    0    0    0    0    0    0    0    22.7168    0.0000    0.0000    0.1638;
    29    370    13.2847466    220    -10    1.0325    430.5    1    370    290    0    0    0    0    0    0    0    0    0    0    0    22.7125    0.0000    0.0000    0.1626;
    29    370    13.2847466    220    -10    1.0325    430.5    1    370    290    0    0    0    0    0    0    0    0    0    0    0    22.7125    0.0000    0.0000    0.1626;
    29    370    13.2847466    220    -10    1.0325    430.5    1    370    290    0    0    0    0    0    0    0    0    0    0    0    22.7125    0.0000    0.0000    0.1626;
    43    215    76.9816263    120    -20    1.09091    246.2    1    215    135    0    0    0    0    0    0    0    0    0    0    0    0.8398    0.0000    0.0019    0.0000;
    43    0    0    120    -20    1.09091    275.3    0    247.8    135    0    0    0    0    0    0    0    0    0    0    0    0.0000    0.0000    0.0000    0.0000;
    43    247.8    76.9816263    120    -20    1.09091    275.3    1    247.8    135    0    0    0    0    0    0    0    0    0    0    0    0.8398    0.0000    0.0019    0.0000;
    44    225    3.41189362    120    -20    1.09096    255    1    225    135    0    0    0    0    0    0    0    0    0    0    0    0.8301    0.0000    0.0000    0.0000;
    44    225    3.41189362    120    -20    1.09096    255    1    225    135    0    0    0    0    0    0    0    0    0    0    0    0.8301    0.0000    0.0000    0.0000;
    44    0    0    120    -20    1.09096    255    0    225    135    0    0    0    0    0    0    0    0    0    0    0    0.0000    0.0000    0.0000    0.0000;
    45    0    0    350    -40    1.0325    610.3    0    500    350    0    0    0    0    0    0    0    0    0    0    0    0.0000    0.0000    0.0000    0.0000;
    45    500    40.2205755    350    -40    1.0325    610.3    1    500    350    0    0    0    0    0    0    0    0    0    0    0    1.5074    0.0000    0.0000    0.0000;
    55    130    -15.9317985    120    -20    1.09121    255    1    225    130    0    0    0    0    0    0    0    0    0    0    0    0.0000    2.6707    0.0000    0.1306;
    56    130    -7.78962471    120    -20.001    1.09115    255    1    225    130    0    0    0    0    0    0    0    0    0    0    0    0.0000    2.6744    0.0000    0.1282;
    56    130    -7.78962471    120    -20.001    1.09115    255    1    225    130    0    0    0    0    0    0    0    0    0    0    0    0.0000    2.6744    0.0000    0.1282;
    57    130    0.922255956    120    -20    1.03336    255    1    225    130    0    0    0    0    0    0    0    0    0    0    0    0.0000    2.3876    0.0000    0.4555;
    58    0    0    120    -20    1.03337    255    0    225    130    0    0    0    0    0    0    0    0    0    0    0    0.0000    0.0000    0.0000    0.0000;
    58    130    -13.4413377    120    -20.006    1.03337    255    1    225    130    0    0    0    0    0    0    0    0    0    0    0    0.0000    2.3851    0.0000    0.4554;
    58    130    -13.4413377    120    -20.006    1.03337    255    1    225    130    0    0    0    0    0    0    0    0    0    0    0    0.0000    2.3851    0.0000    0.4554;
    59    78.5    33.64    33.64    0    1.08415    85.4    1    78.5    78.5    0    0    0    0    0    0    0    0    0    0    0    103.6382    0.0000    0.0447    0.0000;
    78    225    55.3895482    105    5    1.09091    248.3    1    225    140    0    0    0    0    0    0    0    0    0    0    0    4.1968    0.0000    0.0000    0.0000;
    78    225    55.3895482    105    5    1.09091    248.3    1    225    140    0    0    0    0    0    0    0    0    0    0    0    4.1968    0.0000    0.0000    0.0000;
    79    0    0    105    5    1.09034    243.8    0    220    140    0    0    0    0    0    0    0    0    0    0    0    0.0000    0.0000    0.0000    0.0000;
    79    0    0    105    5    1.09034    248.3    0    225    140    0    0    0    0    0    0    0    0    0    0    0    0.0000    0.0000    0.0000    0.0000;
    79    225    5    105    5    1.09034    248.3    1    225    140    0    0    0    0    0    0    0    0    0    0    0    4.3206    0.0000    0.0011    0.0000;
    82    380    56.7234869    192    -37    1.02993    425.8    1    380    220    0    0    0    0    0    0    0    0    0    0    0    9.1708    0.0000    0.0000    0.0000;
    82    370    59.9896636    174    -19    1.02993    408.9    1    370    220    0    0    0    0    0    0    0    0    0    0    0    9.1708    0.0000    0.0000    0.0000;
    104    225    56.1174938    113    -48    1.09091    251.8    1    225    134    0    0    0    0    0    0    0    0    0    0    0    6.2905    0.0000    0.0000    0.0000;
    105    225    34.3132114    113    -48    1.09091    251.8    1    225    134    0    0    0    0    0    0    0    0    0    0    0    6.2879    0.0000    0.0010    0.0000;
    106    120    27.7742637    90    -5    1.09091    150    1    120    79    0    0    0    0    0    0    0    0    0    0    0    5.0412    0.0000    0.0000    0.0000;
    107    120    49.9924618    90    -5    1.09091    150    1    120    79    0    0    0    0    0    0    0    0    0    0    0    5.0431    0.0000    0.0009    0.0000;
    116    0    0    90    -20    1.09042    150    0    120    90    0    0    0    0    0    0    0    0    0    0    0    0.0000    0.0000    0.0000    0.0000;
    117    120    41.2757115    90    -20    1.09046    150    1    120    70    0    0    0    0    0    0    0    0    0    0    0    2.7658    0.0000    0.0000    0.0000;
    118    110    40.6741343    68    33    1.089    129.3    1    110    80    0    0    0    0    0    0    0    0    0    0    0    1.3545    0.0000    0.0000    0.0648;
    125    215    91.3938795    113    -11    1.09091    242.9    1    215    160    0    0    0    0    0    0    0    0    0    0    0    8.3830    0.0000    0.0000    0.0000;
    126    225    80.7798072    84    -5    1.09082    240.2    1    225    140    0    0    0    0    0    0    0    0    0    0    0    8.3860    0.0000    0.0025    0.0000;
    126    0    0    80    -5    1.09082    229.4    0    215    160    0    0    0    0    0    0    0    0    0    0    0    0.0000    0.0000    0.0000    0.0000;
    127    225    -6.17437852    79    -7.498    1.02869    238.5    1    225    140    0    0    0    0    0    0    0    0    0    0    0    8.8712    0.0000    0.0000    0.6133;
    127    220    -8.31674302    100    -10    1.02869    241.7    1    220    160    0    0    0    0    0    0    0    0    0    0    0    8.8712    0.0000    0.0000    0.6133;
    132    125    10.2408903    40    -38    1.09091    131.2    1    125    74    0    0    0    0    0    0    0    0    0    0    0    99.1743    0.0000    0.0000    0.0000;
    132    125    10.2408903    40    -38    1.09091    131.2    1    125    74    0    0    0    0    0    0    0    0    0    0    0    99.1743    0.0000    0.0000    0.0000;
    133    0    0    40    -38    1.09091    131.2    0    125    74    0    0    0    0    0    0    0    0    0    0    0    0.0000    0.0000    0.0000    0.0000;
    133    125    24.9213269    40    -38    1.09091    131.2    1    125    74    0    0    0    0    0    0    0    0    0    0    0    99.3512    0.0000    0.0000    0.0000;
    134    0    0    90    0    1.08882    150    0    120    102    0    0    0    0    0    0    0    0    0    0    0    0.0000    0.0000    0.0000    0.0000;
    134    120    90    90    0    1.08882    150    1    120    100    0    0    0    0    0    0    0    0    0    0    0    11.0166    0.0000    0.0000    0.0000;
    135    0    0    90    0    1.08867    150    0    120    102    0    0    0    0    0    0    0    0    0    0    0    0.0000    0.0000    0.0000    0.0000;
    146    50    12    12    0    1.09012    51.4    1    50    30    0    0    0    0    0    0    0    0    0    0    0    8.4261    0.0000    0.0247    0.0000;
    146    50    12    12    0    1.09012    51.4    1    50    30    0    0    0    0    0    0    0    0    0    0    0    8.4261    0.0000    0.0247    0.0000;
    147    0    0    90    0    1.09011    150    0    120    90    0    0    0    0    0    0    0    0    0    0    0    0.0000    0.0000    0.0000    0.0000;
    148    90    20.730968    120    0    1.09091    252.4    1    222    90    0    0    0    0    0    0    0    0    0    0    0    0.0000    3.7346    0.0000    0.0000;
    148    0    0    120    0    1.09091    237.5    0    205    135    0    0    0    0    0    0    0    0    0    0    0    0.0000    0.0000    0.0000    0.0000;
    148    0    0    120    0    1.09091    237.5    0    205    135    0    0    0    0    0    0    0    0    0    0    0    0.0000    0.0000    0.0000    0.0000;
    148    90    20.730968    120    0    1.09091    252.4    1    222    90    0    0    0    0    0    0    0    0    0    0    0    0.0000    3.7346    0.0000    0.0000;
    150    90    32.0082819    120    0    1.03246    252.4    1    222    90    0    0    0    0    0    0    0    0    0    0    0    0.0000    4.7102    0.0000    0.2377;
    151    90    9.93159536    120    0    1.0325    252.4    1    222    90    0    0    0    0    0    0    0    0    0    0    0    0.0000    4.7134    0.0000    0.2386;
    151    90    9.93159536    120    0    1.0325    252.4    1    222    90    0    0    0    0    0    0    0    0    0    0    0    0.0000    4.7134    0.0000    0.2386;
    155    235    38.2779668    120    0    1.09091    263.9    1    235    94    0    0    0    0    0    0    0    0    0    0    0    0.1364    0.0000    0.0000    0.0000;
    155    235    38.2779668    120    0    1.09091    263.9    1    235    94    0    0    0    0    0    0    0    0    0    0    0    0.1364    0.0000    0.0000    0.0000;
    155    0    0    120    0    1.09091    237.5    0    205    130    0    0    0    0    0    0    0    0    0    0    0    0.0000    0.0000    0.0000    0.0000;
    155    261    38.2779668    120    0    1.09091    287.3    1    261    104    0    0    0    0    0    0    0    0    0    0    0    0.1364    0.0000    0.0000    0.0000;
    156    0    0    120    0    1.09091    237.5    0    205    130    0    0    0    0    0    0    0    0    0    0    0    0.0000    0.0000    0.0000    0.0000;
    156    205    40.8031496    120    0    1.09091    237.5    1    205    130    0    0    0    0    0    0    0    0    0    0    0    0.7478    0.0000    0.0000    0.0000;
    156    206    40.8031496    120    0    1.09091    238.4    1    206    120    0    0    0    0    0    0    0    0    0    0    0    0.7478    0.0000    0.0000    0.0000;
    156    206    40.8031496    120    0    1.09091    238.4    1    206    120    0    0    0    0    0    0    0    0    0    0    0    0.7478    0.0000    0.0000    0.0000;
    159    206    47.9346648    120    0    1.00535    238.4    1    206    120    0    0    0    0    0    0    0    0    0    0    0    0.5953    0.0000    0.1487    0.0000;
    165    200    8.18746891    120    -0.009    1.09084    233.2    1    200    150    0    0    0    0    0    0    0    0    0    0    0    15.6466    0.0000    0.0000    0.0000;
    165    200    8.18746891    120    -0.009    1.09084    233.2    1    200    150    0    0    0    0    0    0    0    0    0    0    0    15.6466    0.0000    0.0000    0.0000;
    166    200    98.5131445    120    0    1.09091    233.2    1    200    150    0    0    0    0    0    0    0    0    0    0    0    15.6572    0.0000    0.0020    0.0000;
    166    200    98.5131445    120    0    1.09091    233.2    1    200    150    0    0    0    0    0    0    0    0    0    0    0    15.6572    0.0000    0.0020    0.0000;
    205    179    -25.3005301    110    -60    1.0325    210.1    1    179    140    0    0    0    0    0    0    0    0    0    0    0    109.4271    0.0000    0.0004    0.0000;
    205    179    -25.3005301    110    -60    1.0325    210.1    1    179    140    0    0    0    0    0    0    0    0    0    0    0    109.4271    0.0000    0.0004    0.0000;
    205    0    0    110    -60    1.0325    210.1    0    179    140    0    0    0    0    0    0    0    0    0    0    0    0.0000    0.0000    0.0000    0.0000;
    206    179    35.5233594    110    -60    1.0325    210.1    1    179    140    0    0    0    0    0    0    0    0    0    0    0    109.4273    0.0000    0.0000    0.0000;
    215    37.079    2.16703903    20    0    1.08646    58.5    1    37.079    37.079    0    0    0    0    0    0    0    0    0    0    0    107.6029    0.0000    0.0000    0.0000;
    215    33.708    2.16703903    20    0    1.08646    53.9    1    33.708    33.708    0    0    0    0    0    0    0    0    0    0    0    107.6029    0.0000    0.0000    0.0000;
    215    33.708    2.16703903    20    0    1.08646    53.9    1    33.708    33.708    0    0    0    0    0    0    0    0    0    0    0    107.6029    0.0000    0.0000    0.0000;
    215    15.506    2.16703903    20    0    1.08646    30.5    1    15.506    15.506    0    0    0    0    0    0    0    0    0    0    0    107.6029    0.0000    0.0000    0.0000;
    239    4    0    8    0    1.03337    15.4    1    4    4    0    0    0    0    0    0    0    0    0    0    0    112.9996    0.0000    2.2671    0.0000;
    246    370    -11.8884024    220    -14    1.03502    430.5    1    370    290    0    0    0    0    0    0    0    0    0    0    0    21.9779    0.0000    0.0000    0.0000;
    291    2    1.59705832    2    0    1.06439    3.2    1    2    2    0    0    0    0    0    0    0    0    0    0    0    108.0721    0.0000    1.6229    0.0000;
    294    3    1.67207267    2    0    1.05278    4.8    1    3    3    0    0    0    0    0    0    0    0    0    0    0    111.8991    0.0000    1.2777    0.0000;
    306    9.167    6.73540807    7    0    1.05332    24    1    9.167    9.167    0    0    0    0    0    0    0    0    0    0    0    103.3043    0.0000    0.9479    0.0000;
    306    16.296    6.73540807    7    0    1.05332    27.9    1    16.296    16.296    0    0    0    0    0    0    0    0    0    0    0    103.3043    0.0000    0.9479    0.0000;
    306    11.204    7.55491706    7.616    6    1.05332    31    1    11.204    11.204    0    0    0    0    0    0    0    0    0    0    0    103.3043    0.0000    0.9479    0.0000;
    306    9.167    6.73540807    7    0    1.05332    26.9    1    9.167    9.167    0    0    0    0    0    0    0    0    0    0    0    103.3043    0.0000    0.9479    0.0000;
    306    9.167    7.62833074    7.928    0    1.05332    28.1    1    9.167    9.167    0    0    0    0    0    0    0    0    0    0    0    103.3043    0.0000    0.9479    0.0000;
    307    36.5    3.11157595    15    0    1.05854    57    1    36.5    36.5    0    0    0    0    0    0    0    0    0    0    0    103.3021    0.0000    0.6146    0.0000;
    307    36.5    3.11157595    15    0    1.05854    57    1    36.5    36.5    0    0    0    0    0    0    0    0    0    0    0    103.3021    0.0000    0.6146    0.0000;
    308    32    14.7480025    15    0    1.067    36.7    1    32    32    0    0    0    0    0    0    0    0    0    0    0    102.6465    0.0000    0.4584    0.0000;
    308    40    17.3003901    17.596    0    1.067    57.7    1    40    40    0    0    0    0    0    0    0    0    0    0    0    102.6465    0.0000    0.4584    0.0000;
    310    35    18.012933    20    0    1.07303    53.9    1    35    35    0    0    0    0    0    0    0    0    0    0    0    101.5140    0.0000    0.7376    0.0000;
    310    75    24.5399193    27.247    0    1.07303    103.6    1    75    75    0    0    0    0    0    0    0    0    0    0    0    101.5140    0.0000    0.7376    0.0000;
    311    45    3.4087253    40    0    1.06272    64    1    45    45    0    0    0    0    0    0    0    0    0    0    0    101.8647    0.0000    0.5093    0.0000;
    362    37.8    12    12    0    1.08888    47.8    1    37.8    37.8    0    0    0    0    0    0    0    0    0    0    0    107.3954    0.0000    0.5000    0.0000;
    363    37.8    12    12    0    1.06039    47.8    1    37.8    37.8    0    0    0    0    0    0    0    0    0    0    0    109.5339    0.0000    1.5579    0.0000;
    364    37.8    12    12    0    1.1049    47.8    1    37.8    37.8    0    0    0    0    0    0    0    0    0    0    0    106.0017    0.0000    0.0000    0.0000;
    364    45    12    12    0    1.1049    71    1    45    45    0    0    0    0    0    0    0    0    0    0    0    106.0017    0.0000    0.0000    0.0000;
    365    37.8    12    12    0    1.06981    47.8    1    37.8    37.8    0    0    0    0    0    0    0    0    0    0    0    108.6493    0.0000    1.5359    0.0000;
    365    37.8    12    12    0    1.06981    47.8    1    37.8    37.8    0    0    0    0    0    0    0    0    0    0    0    108.6493    0.0000    1.5359    0.0000;
    382    15    3.74903431    10    0    1.08182    55.9    1    55    15    0    0    0    0    0    0    0    0    0    0    0    0.0000    3.9334    0.0000    0.0000;
    382    120    38.7374461    120    -10    1.08182    255.9    1    226    120    0    0    0    0    0    0    0    0    0    0    0    0.0000    3.9334    0.0000    0.0000;
    383    15    10    10    0    1.10054    55.9    1    55    15    0    0    0    0    0    0    0    0    0    0    0    0.0000    3.2065    0.0000    0.1108;
    386    3    1.39932801    2    0    1.05805    4.8    1    3    3    0    0    0    0    0    0    0    0    0    0    0    104.2076    0.0000    0.5520    0.0000;
    421    4    4    4    0    1.04857    7.7    1    4    4    0    0    0    0    0    0    0    0    0    0    0    110.1731    0.0000    2.1108    0.0000;
    431    7    8    8    0    1.08943    13.6    1    7    7    0    0    0    0    0    0    0    0    0    0    0    109.5608    0.0000    0.0000    0.0000;
    440    2.5    1.4174199    2    0    1.0288    3.6    1    2.5    2.5    0    0    0    0    0    0    0    0    0    0    0    101.3275    0.0000    0.7112    0.0000;
    447    3.5    0    20    0    1.0498    21.3    1    3.5    3.5    0    0    0    0    0    0    0    0    0    0    0    109.2894    0.0000    0.0000    0.0000;
    447    3.5    0    20    0    1.0498    21.3    1    3.5    3.5    0    0    0    0    0    0    0    0    0    0    0    109.2894    0.0000    0.0000    0.0000;
    463    0    0.583933718    2    0    1.0465    4    1    0    0    0    0    0    0    0    0    0    0    0    0    0    111.1153    0.0000    0.2129    0.0000;
    482    1.4    0.7    0.7    0    1.02656    1.7    1    1.4    1.4    0    0    0    0    0    0    0    0    0    0    0    102.0959    0.0000    0.8760    0.0000;
    490    3.5    3    3    0    1.05535    5.3    1    3.5    3.5    0    0    0    0    0    0    0    0    0    0    0    108.2075    0.0000    1.9900    0.0000;
    522    0    0.39506639    1    0    1.06929    1.9    1    0    0    0    0    0    0    0    0    0    0    0    0    0    101.7872    0.0000    0.0000    0.2246;
    533    0.5    1    1    0    1.07198    1.9    1    0.5    0.5    0    0    0    0    0    0    0    0    0    0    0    108.8685    0.0000    1.0847    0.0000;
    534    35.89    11.4771277    14    0    1.06429    53.9    1    35.89    35.89    0    0    0    0    0    0    0    0    0    0    0    107.9674    0.0000    1.4176    0.0000;
    534    22.086    11.4771277    14    0    1.06429    34.9    1    22.086    22.086    0    0    0    0    0    0    0    0    0    0    0    107.9674    0.0000    1.4176    0.0000;
    534    22.086    11.4771277    14    0    1.06429    34.9    1    22.086    22.086    0    0    0    0    0    0    0    0    0    0    0    107.9674    0.0000    1.4176    0.0000;
    534    72.469    19.6758958    24.001    0    1.06429    107.7    1    72.469    72.469    0    0    0    0    0    0    0    0    0    0    0    107.9674    0.0000    1.4176    0.0000;
    534    72.469    19.6758958    24.001    0    1.06429    107.7    1    72.469    72.469    0    0    0    0    0    0    0    0    0    0    0    107.9674    0.0000    1.4176    0.0000;
    535    24.573    13.8763624    17.5    0    1.05783    36.5    1    24.573    24.573    0    0    0    0    0    0    0    0    0    0    0    107.8909    0.0000    1.6074    0.0000;
    535    23.805    13.8763624    17.5    0    1.05783    35.6    1    23.805    23.805    0    0    0    0    0    0    0    0    0    0    0    107.8909    0.0000    1.6074    0.0000;
    535    95.99    22.2037657    28.002    0    1.05783    128.1    1    95.99    95.99    0    0    0    0    0    0    0    0    0    0    0    107.8909    0.0000    1.6074    0.0000;
    535    80.631    22.2037657    28.002    0    1.05783    108.7    1    80.631    80.631    0    0    0    0    0    0    0    0    0    0    0    107.8909    0.0000    1.6074    0.0000;
    549    1.4    0.7    0.7    0    1.0394    1.7    1    1.4    1.4    0    0    0    0    0    0    0    0    0    0    0    110.3849    0.0000    2.7098    0.0000;
    557    25.724    5.052    5.052    0    1.04037    34.4    1    25.724    25.724    0    0    0    0    0    0    0    0    0    0    0    109.7380    0.0000    2.7262    0.0000;
    557    21.184    5.052    5.052    0    1.04037    28.5    1    21.184    21.184    0    0    0    0    0    0    0    0    0    0    0    109.7380    0.0000    2.7262    0.0000;
    557    19.671    5    5    0    1.04037    26.5    1    19.671    19.671    0    0    0    0    0    0    0    0    0    0    0    109.7380    0.0000    2.7262    0.0000;
    557    22.697    5.052    5.052    0    1.04037    30.4    1    22.697    22.697    0    0    0    0    0    0    0    0    0    0    0    109.7380    0.0000    2.7262    0.0000;
    557    25.724    5.052    5.052    0    1.04037    34.4    1    25.724    25.724    0    0    0    0    0    0    0    0    0    0    0    109.7380    0.0000    2.7262    0.0000;
    558    31.032    5.064    5.064    0    1.03685    34.4    1    31.032    31.032    0    0    0    0    0    0    0    0    0    0    0    109.7338    0.0000    2.7695    0.0000;
    558    31.032    5.064    5.064    0    1.03685    34.4    1    31.032    31.032    0    0    0    0    0    0    0    0    0    0    0    109.7338    0.0000    2.7695    0.0000;
    558    22.817    5    5    0    1.03685    26.5    1    22.817    22.817    0    0    0    0    0    0    0    0    0    0    0    109.7338    0.0000    2.7695    0.0000;
    558    30.119    5.064    5.064    0    1.03685    34.4    1    30.119    30.119    0    0    0    0    0    0    0    0    0    0    0    109.7338    0.0000    2.7695    0.0000;
    594    2.58    1.35    1.35    0    1.06495    4.5    1    2.58    2.58    0    0    0    0    0    0    0    0    0    0    0    107.2664    0.0000    0.0405    0.0000;
    601    5.05    2.24    2.24    0    1.06191    5.5    1    5.05    5.05    0    0    0    0    0    0    0    0    0    0    0    107.4639    0.0000    0.1573    0.0000;
    622    110    0    30    0    1.0778    114    1    110    110    0    0    0    0    0    0    0    0    0    0    0    104.0950    0.0000    0.0000    0.0000;
    622    0    0    30    0    1.0778    65.3    0    0    0    0    0    0    0    0    0    0    0    0    0    0    0.0000    0.0000    0.0000    0.0000;
    626    2.8    1.12    1.12    0    1.07287    3    1    2.8    2.8    0    0    0    0    0    0    0    0    0    0    0    104.7709    0.0000    0.0000    0.0510;
    630    5.61    3.14    3.14    0    1.06945    6.4    1    5.61    5.61    0    0    0    0    0    0    0    0    0    0    0    107.4721    0.0000    0.0013    0.0000;
    631    6.73    3.14    3.14    0    1.06942    7.4    1    6.73    6.73    0    0    0    0    0    0    0    0    0    0    0    107.4263    0.0000    0.0001    0.0000;
    655    1.23    0.45    0.45    0    1.03169    1.3    1    1.23    1.23    0    0    0    0    0    0    0    0    0    0    0    108.3971    0.0000    0.5878    0.0000;
    660    135    38.9998099    120    -20    1.08206    255    1    225    135    0    0    0    0    0    0    0    0    0    0    0    0.0000    0.2973    0.0003    0.0000;
    661    135    -6.96927659    120    -20    1.08182    255    1    225    135    0    0    0    0    0    0    0    0    0    0    0    0.0000    0.2933    0.0000    0.0000;
    667    1.91    1.01    1.01    0    1.03727    2.2    1    1.91    1.91    0    0    0    0    0    0    0    0    0    0    0    107.3682    0.0000    0.3096    0.0000;
    671    9.53    3.36    3.36    0    1.06812    10.1    1    9.53    9.53    0    0    0    0    0    0    0    0    0    0    0    107.1164    0.0000    0.0000    0.1078;
    673    3.36    1.12    1.12    0    1.06495    4.4    1    3.36    3.36    0    0    0    0    0    0    0    0    0    0    0    103.6981    0.0000    0.0168    0.0000;
    681    190    0    30    0    1.08024    192.4    1    190    190    0    0    0    0    0    0    0    0    0    0    0    103.8516    0.0000    0.0000    0.0759;
    681    24.998    0    30    0    1.08024    77.5    1    24.998    24.998    0    0    0    0    0    0    0    0    0    0    0    103.8516    0.0000    0.0000    0.0759;
    687    11.21    5.61    5.61    0    1.07512    12.5    1    11.21    11.21    0    0    0    0    0    0    0    0    0    0    0    104.6035    0.0000    0.0000    0.0758;
    699    6.73    3.36    3.36    0    1.0746    7.5    1    6.73    6.73    0    0    0    0    0    0    0    0    0    0    0    104.9331    0.0000    0.0000    0.0030;
    702    1.12    0    1.12    0    1.0721    1.6    1    1.12    1.12    0    0    0    0    0    0    0    0    0    0    0    103.9180    0.0000    0.0016    0.0000;
    712    10    4    4    0    1.07103    10.8    1    10    10    0    0    0    0    0    0    0    0    0    0    0    103.2569    0.0000    0.2418    0.0000;
    718    1.57    1.12    1.12    0    1.03111    1.9    1    1.57    1.57    0    0    0    0    0    0    0    0    0    0    0    108.4955    0.0000    0.6479    0.0000;
    722    2.8    1.12    1.12    0    1.06069    3    1    2.8    2.8    0    0    0    0    0    0    0    0    0    0    0    107.3366    0.0000    0.1394    0.0000;
    731    1.68    0    0.56    0    1.06199    4.3    1    1.68    1.68    0    0    0    0    0    0    0    0    0    0    0    105.0460    0.0000    0.1633    0.0000;
    736    130    8.96724211    120    -20    1.08182    255    1    225    130    0    0    0    0    0    0    0    0    0    0    0    0.0000    3.7628    0.0000    0.0000;
    740    2.24    0    0    0    1.06599    4.3    1    2.24    2.24    0    0    0    0    0    0    0    0    0    0    0    104.0360    0.0000    0.1510    0.0000;
    747    5.83    3.36    3.36    0    1.04853    6.7    1    5.83    5.83    0    0    0    0    0    0    0    0    0    0    0    108.3433    0.0000    0.0000    0.0000;
    759    90    0    30    0    1.0699    105.2    1    90    90    0    0    0    0    0    0    0    0    0    0    0    103.0227    0.0000    0.0000    0.0969;
    760    0    0    0    0    1.06824    1.3    0    0    0    0    0    0    0    0    0    0    0    0    0    0    0.0000    0.0000    0.0000    0.0000;
    778    12.34    0    30    0    1.05918    32.4    1    12.34    12.34    0    0    0    0    0    0    0    0    0    0    0    104.9867    0.0000    0.0000    0.0000;
    780    1.68    0.9    0.9    0    1.07776    1.9    1    1.68    1.68    0    0    0    0    0    0    0    0    0    0    0    104.0981    0.0000    0.0000    0.0003;
    783    6    3    3    0    1.07336    6.7    1    6    6    0    0    0    0    0    0    0    0    0    0    0    105.0189    0.0000    0.0000    0.0445;
    788    2    1    1    0    1.04756    95.9    1    2    2    0    0    0    0    0    0    0    0    0    0    0    106.0440    0.0000    0.0268    0.0000;
    792    68    0    23    0    1.05369    71.8    1    68    0    0    0    0    0    0    0    0    0    0    0    0    104.9367    0.0000    0.0000    0.0000;
    792    0    0    23    0    1.05369    71.8    0    68    0    0    0    0    0    0    0    0    0    0    0    0    0.0000    0.0000    0.0000    0.0000;
    792    0    0    11    0    1.05369    23.7    0    21    0    0    0    0    0    0    0    0    0    0    0    0    0.0000    0.0000    0.0000    0.0000;
    792    0    0    10    0    1.05369    23.3    0    21    0    0    0    0    0    0    0    0    0    0    0    0    0.0000    0.0000    0.0000    0.0000;
    803    0    10    10    -0.002    1.08195    55.9    1    55    0    0    0    0    0    0    0    0    0    0    0    0    0.0000    7.2443    0.0000    0.1110;
    804    0    10    10    0    1.07278    120.4    1    120    0    0    0    0    0    0    0    0    0    0    0    0    0.0000    4.6029    0.0329    0.0000;
    809    0    0    0    0    1.07004    3.3    0    0    0    0    0    0    0    0    0    0    0    0    0    0    0.0000    0.0000    0.0000    0.0000;
    815    3.36    2.02    2.02    0    1.07164    3.9    1    3.36    3.36    0    0    0    0    0    0    0    0    0    0    0    107.1130    0.0000    0.0000    0.0595;
    834    1.12    0    0    0    1.05238    1.5    1    1.12    1.12    0    0    0    0    0    0    0    0    0    0    0    105.9599    0.0000    0.3467    0.0000;
    840    30    8.1    8.1    0    1.05932    51.6    1    30    30    0    0    0    0    0    0    0    0    0    0    0    103.6599    0.0000    0.2636    0.0000;
    840    30    8.1    8.1    0    1.05932    51.6    1    30    30    0    0    0    0    0    0    0    0    0    0    0    103.6599    0.0000    0.2636    0.0000;
...